wipe
model basic -ndm 2 -ndf 2
node 1 -10.5 -20.0
node 2 -9.406407 -20.0
node 3 -8.334745 -20.0
node 4 -7.284575 -20.0
node 5 -6.255464 -20.0
node 6 -5.246992 -20.0
node 7 -4.258744 -20.0
node 8 -3.290314 -20.0
node 9 -2.341305 -20.0
node 10 -1.411327 -20.0
node 11 -0.5 -20.0
node 12 -10.5 -19.0
node 13 -9.406407 -19.0
node 14 -8.334745 -19.0
node 15 -7.284575 -19.0
node 16 -6.255464 -19.0
node 17 -5.246992 -19.0
node 18 -4.258744 -19.0
node 19 -3.290314 -19.0
node 20 -2.341305 -19.0
# ... 442 like lines cut
nDMaterial PressureDependMultiYield02 5 2 1.8 9600.0 27000.0 36 0.1 101.0 0.0 26 0.067 0.23 0.06 0.27 20 5.0 3.0 1.0 0.0 0.77 0.9 0.02 0.7 101.0
nDMaterial InitialStateAnalysisWrapper 1 5 2
nDMaterial ContactMaterial2D 2 0.1 1000.0 0.0 0.0
element quad 1 1 2 13 12 1.0 PlaneStrain 1 0.0 0.0 0.0 -17.658
element quad 2 2 3 14 13 1.0 PlaneStrain 1 0.0 0.0 0.0 -17.658
element quad 3 3 4 15 14 1.0 PlaneStrain 1 0.0 0.0 0.0 -17.658
element quad 4 4 5 16 15 1.0 PlaneStrain 1 0.0 0.0 0.0 -17.658
element quad 5 5 6 17 16 1.0 PlaneStrain 1 0.0 0.0 0.0 -17.658
element quad 6 6 7 18 17 1.0 PlaneStrain 1 0.0 0.0 0.0 -17.658
element quad 7 7 8 19 18 1.0 PlaneStrain 1 0.0 0.0 0.0 -17.658
element quad 8 8 9 20 19 1.0 PlaneStrain 1 0.0 0.0 0.0 -17.658
element quad 9 9 10 21 20 1.0 PlaneStrain 1 0.0 0.0 0.0 -17.658
element quad 10 10 11 22 21 1.0 PlaneStrain 1 0.0 0.0 0.0 -17.658
element quad 11 12 13 24 23 1.0 PlaneStrain 1 0.0 0.0 0.0 -17.658
element quad 12 13 14 25 24 1.0 PlaneStrain 1 0.0 0.0 0.0 -17.658
element quad 13 14 15 26 25 1.0 PlaneStrain 1 0.0 0.0 0.0 -17.658
element quad 14 15 16 27 26 1.0 PlaneStrain 1 0.0 0.0 0.0 -17.658
element quad 15 16 17 28 27 1.0 PlaneStrain 1 0.0 0.0 0.0 -17.658
element quad 16 17 18 29 28 1.0 PlaneStrain 1 0.0 0.0 0.0 -17.658
element quad 17 18 19 30 29 1.0 PlaneStrain 1 0.0 0.0 0.0 -17.658
element quad 18 19 20 31 30 1.0 PlaneStrain 1 0.0 0.0 0.0 -17.658
element quad 19 20 21 32 31 1.0 PlaneStrain 1 0.0 0.0 0.0 -17.658
element quad 20 21 22 33 32 1.0 PlaneStrain 1 0.0 0.0 0.0 -17.658
# ... 380 like lines cut
fix 1 1 0
fix 242 1 0
fix 12 1 0
fix 253 1 0
fix 23 1 0
fix 264 1 0
fix 34 1 0
fix 275 1 0
fix 45 1 0
fix 286 1 0
fix 56 1 0
fix 297 1 0
fix 67 1 0
fix 308 1 0
fix 78 1 0
fix 319 1 0
fix 89 1 0
fix 330 1 0
fix 100 1 0
fix 341 1 0
# ... 44 like lines cut
wipe
model basic -ndm 2 -ndf 2
node 1 -10.5 -20.0
node 2 -9.406407 -20.0
node 3 -8.334745 -20.0
node 4 -7.284575 -20.0
node 5 -6.255464 -20.0
node 6 -5.246992 -20.0
node 7 -4.258744 -20.0
node 8 -3.290314 -20.0
node 9 -2.341305 -20.0
node 10 -1.411327 -20.0
node 11 -0.5 -20.0
node 12 -10.5 -19.0
node 13 -9.406407 -19.0
node 14 -8.334745 -19.0
node 15 -7.284575 -19.0
node 16 -6.255464 -19.0
node 17 -5.246992 -19.0
node 18 -4.258744 -19.0
node 19 -3.290314 -19.0
node 20 -2.341305 -19.0
# ... 442 like lines cut
nDMaterial PressureDependMultiYield02 5 2 1.8 9600.0 27000.0 36 0.1 101.0 0.0 26 0.067 0.23 0.06 0.27 20 5.0 3.0 1.0 0.0 0.77 0.9 0.02 0.7 101.0
nDMaterial InitialStateAnalysisWrapper 1 5 2
nDMaterial ContactMaterial2D 2 0.1 1000.0 0.0 0.0
element quad 1 1 2 13 12 1.0 PlaneStrain 1 0.0 0.0 0.0 -17.658
element quad 2 2 3 14 13 1.0 PlaneStrain 1 0.0 0.0 0.0 -17.658
element quad 3 3 4 15 14 1.0 PlaneStrain 1 0.0 0.0 0.0 -17.658
element quad 4 4 5 16 15 1.0 PlaneStrain 1 0.0 0.0 0.0 -17.658
element quad 5 5 6 17 16 1.0 PlaneStrain 1 0.0 0.0 0.0 -17.658
element quad 6 6 7 18 17 1.0 PlaneStrain 1 0.0 0.0 0.0 -17.658
element quad 7 7 8 19 18 1.0 PlaneStrain 1 0.0 0.0 0.0 -17.658
element quad 8 8 9 20 19 1.0 PlaneStrain 1 0.0 0.0 0.0 -17.658
element quad 9 9 10 21 20 1.0 PlaneStrain 1 0.0 0.0 0.0 -17.658
element quad 10 10 11 22 21 1.0 PlaneStrain 1 0.0 0.0 0.0 -17.658
element quad 11 12 13 24 23 1.0 PlaneStrain 1 0.0 0.0 0.0 -17.658
element quad 12 13 14 25 24 1.0 PlaneStrain 1 0.0 0.0 0.0 -17.658
element quad 13 14 15 26 25 1.0 PlaneStrain 1 0.0 0.0 0.0 -17.658
element quad 14 15 16 27 26 1.0 PlaneStrain 1 0.0 0.0 0.0 -17.658
element quad 15 16 17 28 27 1.0 PlaneStrain 1 0.0 0.0 0.0 -17.658
element quad 16 17 18 29 28 1.0 PlaneStrain 1 0.0 0.0 0.0 -17.658
element quad 17 18 19 30 29 1.0 PlaneStrain 1 0.0 0.0 0.0 -17.658
element quad 18 19 20 31 30 1.0 PlaneStrain 1 0.0 0.0 0.0 -17.658
element quad 19 20 21 32 31 1.0 PlaneStrain 1 0.0 0.0 0.0 -17.658
element quad 20 21 22 33 32 1.0 PlaneStrain 1 0.0 0.0 0.0 -17.658
# ... 380 like lines cut
fix 1 1 0
fix 242 1 0
fix 12 1 0
fix 253 1 0
fix 23 1 0
fix 264 1 0
fix 34 1 0
fix 275 1 0
fix 45 1 0
fix 286 1 0
fix 56 1 0
fix 297 1 0
fix 67 1 0
fix 308 1 0
fix 78 1 0
fix 319 1 0
fix 89 1 0
fix 330 1 0
fix 100 1 0
fix 341 1 0
# ... 44 like lines cut
model basic -ndm 2 -ndf 3
node 463 0.0 -20.0
node 464 0.0 -19.0
node 465 0.0 -18.0
node 466 0.0 -17.0
node 467 0.0 -16.0
node 468 0.0 -15.0
node 469 0.0 -14.0
node 470 0.0 -13.0
node 471 0.0 -12.0
node 472 0.0 -11.0
node 473 0.0 -10.0
node 474 0.0 -9.0
node 475 0.0 -8.0
node 476 0.0 -7.0
node 477 0.0 -6.0
node 478 0.0 -5.0
node 479 0.0 -4.0
node 480 0.0 -3.0
node 481 0.0 -2.0
node 482 0.0 -1.0
# ... 4 like lines cut
geomTransf Line 1
wipe
model basic -ndm 2 -ndf 2
node 1 -10.5 -20.0
node 2 -9.406407 -20.0
node 3 -8.334745 -20.0
node 4 -7.284575 -20.0
node 5 -6.255464 -20.0
node 6 -5.246992 -20.0
node 7 -4.258744 -20.0
node 8 -3.290314 -20.0
node 9 -2.341305 -20.0
node 10 -1.411327 -20.0
node 11 -0.5 -20.0
node 12 -10.5 -19.0
node 13 -9.406407 -19.0
node 14 -8.334745 -19.0
node 15 -7.284575 -19.0
node 16 -6.255464 -19.0
node 17 -5.246992 -19.0
node 18 -4.258744 -19.0
node 19 -3.290314 -19.0
node 20 -2.341305 -19.0
# ... 442 like lines cut
nDMaterial PressureDependMultiYield02 5 2 1.8 9600.0 27000.0 36 0.1 101.0 0.0 26 0.067 0.23 0.06 0.27 20 5.0 3.0 1.0 0.0 0.77 0.9 0.02 0.7 101.0
nDMaterial InitialStateAnalysisWrapper 1 5 2
nDMaterial ContactMaterial2D 2 0.1 1000.0 0.0 0.0
element quad 1 1 2 13 12 1.0 PlaneStrain 1 0.0 0.0 0.0 -17.658
element quad 2 2 3 14 13 1.0 PlaneStrain 1 0.0 0.0 0.0 -17.658
element quad 3 3 4 15 14 1.0 PlaneStrain 1 0.0 0.0 0.0 -17.658
element quad 4 4 5 16 15 1.0 PlaneStrain 1 0.0 0.0 0.0 -17.658
element quad 5 5 6 17 16 1.0 PlaneStrain 1 0.0 0.0 0.0 -17.658
element quad 6 6 7 18 17 1.0 PlaneStrain 1 0.0 0.0 0.0 -17.658
element quad 7 7 8 19 18 1.0 PlaneStrain 1 0.0 0.0 0.0 -17.658
element quad 8 8 9 20 19 1.0 PlaneStrain 1 0.0 0.0 0.0 -17.658
element quad 9 9 10 21 20 1.0 PlaneStrain 1 0.0 0.0 0.0 -17.658
element quad 10 10 11 22 21 1.0 PlaneStrain 1 0.0 0.0 0.0 -17.658
element quad 11 12 13 24 23 1.0 PlaneStrain 1 0.0 0.0 0.0 -17.658
element quad 12 13 14 25 24 1.0 PlaneStrain 1 0.0 0.0 0.0 -17.658
element quad 13 14 15 26 25 1.0 PlaneStrain 1 0.0 0.0 0.0 -17.658
element quad 14 15 16 27 26 1.0 PlaneStrain 1 0.0 0.0 0.0 -17.658
element quad 15 16 17 28 27 1.0 PlaneStrain 1 0.0 0.0 0.0 -17.658
element quad 16 17 18 29 28 1.0 PlaneStrain 1 0.0 0.0 0.0 -17.658
element quad 17 18 19 30 29 1.0 PlaneStrain 1 0.0 0.0 0.0 -17.658
element quad 18 19 20 31 30 1.0 PlaneStrain 1 0.0 0.0 0.0 -17.658
element quad 19 20 21 32 31 1.0 PlaneStrain 1 0.0 0.0 0.0 -17.658
element quad 20 21 22 33 32 1.0 PlaneStrain 1 0.0 0.0 0.0 -17.658
# ... 380 like lines cut
fix 1 1 0
fix 242 1 0
fix 12 1 0
fix 253 1 0
fix 23 1 0
fix 264 1 0
fix 34 1 0
fix 275 1 0
fix 45 1 0
fix 286 1 0
fix 56 1 0
fix 297 1 0
fix 67 1 0
fix 308 1 0
fix 78 1 0
fix 319 1 0
fix 89 1 0
fix 330 1 0
fix 100 1 0
fix 341 1 0
# ... 44 like lines cut
model basic -ndm 2 -ndf 3
node 463 0.0 -20.0
node 464 0.0 -19.0
node 465 0.0 -18.0
node 466 0.0 -17.0
node 467 0.0 -16.0
node 468 0.0 -15.0
node 469 0.0 -14.0
node 470 0.0 -13.0
node 471 0.0 -12.0
node 472 0.0 -11.0
node 473 0.0 -10.0
node 474 0.0 -9.0
node 475 0.0 -8.0
node 476 0.0 -7.0
node 477 0.0 -6.0
node 478 0.0 -5.0
node 479 0.0 -4.0
node 480 0.0 -3.0
node 481 0.0 -2.0
node 482 0.0 -1.0
# ... 4 like lines cut
geomTransf Linear 1
section Elastic 1 200000000 0.7853981633974483 0.04908738521234052
beamIntegration Legendre 1 1 3
element dispBeamColumn 401 463 464 1 1
element dispBeamColumn 402 464 465 1 1
element dispBeamColumn 403 465 466 1 1
element dispBeamColumn 404 466 467 1 1
element dispBeamColumn 405 467 468 1 1
element dispBeamColumn 406 468 469 1 1
element dispBeamColumn 407 469 470 1 1
element dispBeamColumn 408 470 471 1 1
element dispBeamColumn 409 471 472 1 1
element dispBeamColumn 410 472 473 1 1
element dispBeamColumn 411 473 474 1 1
element dispBeamColumn 412 474 475 1 1
element dispBeamColumn 413 475 476 1 1
element dispBeamColumn 414 476 477 1 1
element dispBeamColumn 415 477 478 1 1
element dispBeamColumn 416 478 479 1 1
element dispBeamColumn 417 479 480 1 1
element dispBeamColumn 418 480 481 1 1
element dispBeamColumn 419 481 482 1 1
element dispBeamColumn 420 482 483 1 1
element dispBeamColumn 421 483 484 1 1
element dispBeamColumn 422 484 485 1 1
element dispBeamColumn 423 485 486 1 1
fix 0 1 0
wipe
model basic -ndm 2 -ndf 2
node 1 -10.5 -20.0
node 2 -9.406407 -20.0
node 3 -8.334745 -20.0
node 4 -7.284575 -20.0
node 5 -6.255464 -20.0
node 6 -5.246992 -20.0
node 7 -4.258744 -20.0
node 8 -3.290314 -20.0
node 9 -2.341305 -20.0
node 10 -1.411327 -20.0
node 11 -0.5 -20.0
node 12 -10.5 -19.0
node 13 -9.406407 -19.0
node 14 -8.334745 -19.0
node 15 -7.284575 -19.0
node 16 -6.255464 -19.0
node 17 -5.246992 -19.0
node 18 -4.258744 -19.0
node 19 -3.290314 -19.0
node 20 -2.341305 -19.0
# ... 442 like lines cut
nDMaterial PressureDependMultiYield02 5 2 1.8 9600.0 27000.0 36 0.1 101.0 0.0 26 0.067 0.23 0.06 0.27 20 5.0 3.0 1.0 0.0 0.77 0.9 0.02 0.7 101.0
nDMaterial InitialStateAnalysisWrapper 1 5 2
nDMaterial ContactMaterial2D 2 0.1 1000.0 0.0 0.0
element quad 1 1 2 13 12 1.0 PlaneStrain 1 0.0 0.0 0.0 -17.658
element quad 2 2 3 14 13 1.0 PlaneStrain 1 0.0 0.0 0.0 -17.658
element quad 3 3 4 15 14 1.0 PlaneStrain 1 0.0 0.0 0.0 -17.658
element quad 4 4 5 16 15 1.0 PlaneStrain 1 0.0 0.0 0.0 -17.658
element quad 5 5 6 17 16 1.0 PlaneStrain 1 0.0 0.0 0.0 -17.658
element quad 6 6 7 18 17 1.0 PlaneStrain 1 0.0 0.0 0.0 -17.658
element quad 7 7 8 19 18 1.0 PlaneStrain 1 0.0 0.0 0.0 -17.658
element quad 8 8 9 20 19 1.0 PlaneStrain 1 0.0 0.0 0.0 -17.658
element quad 9 9 10 21 20 1.0 PlaneStrain 1 0.0 0.0 0.0 -17.658
element quad 10 10 11 22 21 1.0 PlaneStrain 1 0.0 0.0 0.0 -17.658
element quad 11 12 13 24 23 1.0 PlaneStrain 1 0.0 0.0 0.0 -17.658
element quad 12 13 14 25 24 1.0 PlaneStrain 1 0.0 0.0 0.0 -17.658
element quad 13 14 15 26 25 1.0 PlaneStrain 1 0.0 0.0 0.0 -17.658
element quad 14 15 16 27 26 1.0 PlaneStrain 1 0.0 0.0 0.0 -17.658
element quad 15 16 17 28 27 1.0 PlaneStrain 1 0.0 0.0 0.0 -17.658
element quad 16 17 18 29 28 1.0 PlaneStrain 1 0.0 0.0 0.0 -17.658
element quad 17 18 19 30 29 1.0 PlaneStrain 1 0.0 0.0 0.0 -17.658
element quad 18 19 20 31 30 1.0 PlaneStrain 1 0.0 0.0 0.0 -17.658
element quad 19 20 21 32 31 1.0 PlaneStrain 1 0.0 0.0 0.0 -17.658
element quad 20 21 22 33 32 1.0 PlaneStrain 1 0.0 0.0 0.0 -17.658
# ... 380 like lines cut
fix 1 1 0
fix 242 1 0
fix 12 1 0
fix 253 1 0
fix 23 1 0
fix 264 1 0
fix 34 1 0
fix 275 1 0
fix 45 1 0
fix 286 1 0
fix 56 1 0
fix 297 1 0
fix 67 1 0
fix 308 1 0
fix 78 1 0
fix 319 1 0
fix 89 1 0
fix 330 1 0
fix 100 1 0
fix 341 1 0
# ... 44 like lines cut
model basic -ndm 2 -ndf 3
node 463 0.0 -20.0
node 464 0.0 -19.0
node 465 0.0 -18.0
node 466 0.0 -17.0
node 467 0.0 -16.0
node 468 0.0 -15.0
node 469 0.0 -14.0
node 470 0.0 -13.0
node 471 0.0 -12.0
node 472 0.0 -11.0
node 473 0.0 -10.0
node 474 0.0 -9.0
node 475 0.0 -8.0
node 476 0.0 -7.0
node 477 0.0 -6.0
node 478 0.0 -5.0
node 479 0.0 -4.0
node 480 0.0 -3.0
node 481 0.0 -2.0
node 482 0.0 -1.0
# ... 4 like lines cut
geomTransf Linear 1
section Elastic 1 200000000 0.7853981633974483 0.04908738521234052
beamIntegration Legendre 1 1 3
element dispBeamColumn 401 463 464 1 1
element dispBeamColumn 402 464 465 1 1
element dispBeamColumn 403 465 466 1 1
element dispBeamColumn 404 466 467 1 1
element dispBeamColumn 405 467 468 1 1
element dispBeamColumn 406 468 469 1 1
element dispBeamColumn 407 469 470 1 1
element dispBeamColumn 408 470 471 1 1
element dispBeamColumn 409 471 472 1 1
element dispBeamColumn 410 472 473 1 1
element dispBeamColumn 411 473 474 1 1
element dispBeamColumn 412 474 475 1 1
element dispBeamColumn 413 475 476 1 1
element dispBeamColumn 414 476 477 1 1
element dispBeamColumn 415 477 478 1 1
element dispBeamColumn 416 478 479 1 1
element dispBeamColumn 417 479 480 1 1
element dispBeamColumn 418 480 481 1 1
element dispBeamColumn 419 481 482 1 1
element dispBeamColumn 420 482 483 1 1
element dispBeamColumn 421 483 484 1 1
element dispBeamColumn 422 484 485 1 1
element dispBeamColumn 423 485 486 1 1
fix 463 0 1 0
wipe
model basic -ndm 2 -ndf 2
node 1 -10.5 -20.0
node 2 -9.406407 -20.0
node 3 -8.334745 -20.0
node 4 -7.284575 -20.0
node 5 -6.255464 -20.0
node 6 -5.246992 -20.0
node 7 -4.258744 -20.0
node 8 -3.290314 -20.0
node 9 -2.341305 -20.0
node 10 -1.411327 -20.0
node 11 -0.5 -20.0
node 12 -10.5 -19.0
node 13 -9.406407 -19.0
node 14 -8.334745 -19.0
node 15 -7.284575 -19.0
node 16 -6.255464 -19.0
node 17 -5.246992 -19.0
node 18 -4.258744 -19.0
node 19 -3.290314 -19.0
node 20 -2.341305 -19.0
# ... 442 like lines cut
nDMaterial PressureDependMultiYield02 5 2 1.8 9600.0 27000.0 36 0.1 101.0 0.0 26 0.067 0.23 0.06 0.27 20 5.0 3.0 1.0 0.0 0.77 0.9 0.02 0.7 101.0
nDMaterial InitialStateAnalysisWrapper 1 5 2
nDMaterial ContactMaterial2D 2 0.1 1000.0 0.0 0.0
element quad 1 1 2 13 12 1.0 PlaneStrain 1 0.0 0.0 0.0 -17.658
element quad 2 2 3 14 13 1.0 PlaneStrain 1 0.0 0.0 0.0 -17.658
element quad 3 3 4 15 14 1.0 PlaneStrain 1 0.0 0.0 0.0 -17.658
element quad 4 4 5 16 15 1.0 PlaneStrain 1 0.0 0.0 0.0 -17.658
element quad 5 5 6 17 16 1.0 PlaneStrain 1 0.0 0.0 0.0 -17.658
element quad 6 6 7 18 17 1.0 PlaneStrain 1 0.0 0.0 0.0 -17.658
element quad 7 7 8 19 18 1.0 PlaneStrain 1 0.0 0.0 0.0 -17.658
element quad 8 8 9 20 19 1.0 PlaneStrain 1 0.0 0.0 0.0 -17.658
element quad 9 9 10 21 20 1.0 PlaneStrain 1 0.0 0.0 0.0 -17.658
element quad 10 10 11 22 21 1.0 PlaneStrain 1 0.0 0.0 0.0 -17.658
element quad 11 12 13 24 23 1.0 PlaneStrain 1 0.0 0.0 0.0 -17.658
element quad 12 13 14 25 24 1.0 PlaneStrain 1 0.0 0.0 0.0 -17.658
element quad 13 14 15 26 25 1.0 PlaneStrain 1 0.0 0.0 0.0 -17.658
element quad 14 15 16 27 26 1.0 PlaneStrain 1 0.0 0.0 0.0 -17.658
element quad 15 16 17 28 27 1.0 PlaneStrain 1 0.0 0.0 0.0 -17.658
element quad 16 17 18 29 28 1.0 PlaneStrain 1 0.0 0.0 0.0 -17.658
element quad 17 18 19 30 29 1.0 PlaneStrain 1 0.0 0.0 0.0 -17.658
element quad 18 19 20 31 30 1.0 PlaneStrain 1 0.0 0.0 0.0 -17.658
element quad 19 20 21 32 31 1.0 PlaneStrain 1 0.0 0.0 0.0 -17.658
element quad 20 21 22 33 32 1.0 PlaneStrain 1 0.0 0.0 0.0 -17.658
# ... 327 like lines cut
element quad 348 393 394 405 404 1.0