wipe
model basic -ndm 2 -ndf 2
node 1 -10.0 -10.0
node 2 -8.961086732221304 -10.0
node 3 -7.943007973521853 -10.0
node 4 -6.945345905800719 -10.0
node 5 -5.967691089938443 -10.0
node 6 -5.009642297763785 -10.0
node 7 -4.070806347390254 -10.0
node 8 -3.1507979418548047 -10.0
node 9 -2.249239510992499 -10.0
node 10 -1.3657610564822456 -10.0
node 11 -0.5 -10.0
node 12 -10.0 -9.0
node 13 -8.961086732221304 -9.0
node 14 -7.943007973521853 -9.0
node 15 -6.945345905800719 -9.0
node 16 -5.967691089938443 -9.0
node 17 -5.009642297763785 -9.0
node 18 -4.070806347390254 -9.0
node 19 -3.1507979418548047 -9.0
node 20 -2.249239510992499 -9.0
# ... 330 like lines cut
nDMaterial ElasticIsotropic 1 224000.0 0.4 0.0
nDMaterial ElasticIsotropic 2 32500000.0 0.2 0.0
element quad 1 1 2 13 12 1.0 PlaneStrain 1 0.0 2.0 0.0 0.0
element quad 2 2 3 14 13 1.0 PlaneStrain 1 0.0 2.0 0.0 0.0
element quad 3 3 4 15 14 1.0 PlaneStrain 1 0.0 2.0 0.0 0.0
element quad 4 4 5 16 15 1.0 PlaneStrain 1 0.0 2.0 0.0 0.0
element quad 5 5 6 17 16 1.0 PlaneStrain 1 0.0 2.0 0.0 0.0
element quad 6 6 7 18 17 1.0 PlaneStrain 1 0.0 2.0 0.0 0.0
element quad 7 7 8 19 18 1.0 PlaneStrain 1 0.0 2.0 0.0 0.0
element quad 8 8 9 20 19 1.0 PlaneStrain 1 0.0 2.0 0.0 0.0
element quad 9 9 10 21 20 1.0 PlaneStrain 1 0.0 2.0 0.0 0.0
element quad 10 10 11 22 21 1.0 PlaneStrain 1 0.0 2.0 0.0 0.0
element quad 11 12 13 24 23 1.0 PlaneStrain 1 0.0 2.0 0.0 0.0
element quad 12 13 14 25 24 1.0 PlaneStrain 1 0.0 2.0 0.0 0.0
element quad 13 14 15 26 25 1.0 PlaneStrain 1 0.0 2.0 0.0 0.0
element quad 14 15 16 27 26 1.0 PlaneStrain 1 0.0 2.0 0.0 0.0
element quad 15 16 17 28 27 1.0 PlaneStrain 1 0.0 2.0 0.0 0.0
element quad 16 17 18 29 28 1.0 PlaneStrain 1 0.0 2.0 0.0 0.0
element quad 17 18 19 30 29 1.0 PlaneStrain 1 0.0 2.0 0.0 0.0
element quad 18 19 20 31 30 1.0 PlaneStrain 1 0.0 2.0 0.0 0.0
element quad 19 20 21 32 31 1.0 PlaneStrain 1 0.0 2.0 0.0 0.0
element quad 20 21 22 33 32 1.0 PlaneStrain 1 0.0 2.0 0.0 0.0
# ... 258 like lines cut
element zeroLengthContactNTS2D 279 -sNdNum 11 -mNdNum 21 -Nodes 11 22 33 44 55 66 77 88 99 110 121 202 198 194 190 186 182 178 174 170 166 162 158 154 150 146 142 138 134 130 126 122 10000000000.0 10000000000.0 0.0
element zeroLengthContactNTS2D 280 -sNdNum 11 -mNdNum 21 -Nodes 340 329 318 307 296 285 274 263 252 241 230 125 129 133 137 141 145 149 153 157 161 165 169 173 177 181 185 189 193 197 201 205 10000000000.0 10000000000.0 0.0
fix 2 0 1
fix 3 0 1
fix 4 0 1
fix 5 0 1
fix 6 0 1
fix 7 0 1
fix 8 0 1
fix 9 0 1
fix 10 0 1
fix 11 0 1
fix 122 0 1
fix 123 0 1
fix 124 0 1
fix 125 0 1
fix 230 0 1
fix 231 0 1
fix 232 0 1
fix 233 0 1
fix 234 0 1
fix 235 0 1
# ... 26 like lines cut
timeSeries Constant 1
pattern Plain 1 1 {
load 227 500 0.0
load 228 500 0.0
}
printGID example3.msh
getNodeTags
recorder Node -file disp.txt -node 1 2 3 4 5 6 7 8 9 10 11 12 13 14 15 16 17 18 19 20 21 22 23 24 25 26 27 28 29 30 31 32 33 34 35 36 37 38 39 40 41 42 43 44 45 46 47 48 49 50 51 52 53 54 55 56 57 58 59 60 61 62 63 64 65 66 67 68 69 70 71 72 73 74 75 76 77 78 79 80 81 82 83 84 85 86 87 88 89 90 91 92 93 94 95 96 97 98 99 100 101 102 103 104 105 106 107 108 109 110 111 112 113 114 115 116 117 118 1
integrator LoadControl 0.01
test EnergyIncr 1e-06 100 5
algorithm Newton
numberer RCM
constraints Transformation
system ProfileSPD
analysis Static
analyze 100
printModel node 227 228
wipe
