wipe
model basic -ndm 2 -ndf 2
node 1 -10.0 -10.0
node 2 -8.961086732221304 -10.0
node 3 -7.943007973521853 -10.0
node 4 -6.945345905800719 -10.0
node 5 -5.967691089938443 -10.0
node 6 -5.009642297763785 -10.0
node 7 -4.070806347390254 -10.0
node 8 -3.1507979418548047 -10.0
node 9 -2.249239510992499 -10.0
node 10 -1.3657610564822456 -10.0
node 11 -0.5 -10.0
node 12 -10.0 -9.0
node 13 -8.961086732221304 -9.0
node 14 -7.943007973521853 -9.0
node 15 -6.945345905800719 -9.0
node 16 -5.967691089938443 -9.0
node 17 -5.009642297763785 -9.0
node 18 -4.070806347390254 -9.0
node 19 -3.1507979418548047 -9.0
node 20 -2.249239510992499 -9.0
# ... 222 like lines cut
nDMaterial ElasticIsotropic 1 224000.0 0.4 2.0
element quad 1 1 2 13 12 1.0 PlaneStrain 1
element quad 2 2 3 14 13 1.0 PlaneStrain 1
element quad 3 3 4 15 14 1.0 PlaneStrain 1
element quad 4 4 5 16 15 1.0 PlaneStrain 1
element quad 5 5 6 17 16 1.0 PlaneStrain 1
element quad 6 6 7 18 17 1.0 PlaneStrain 1
element quad 7 7 8 19 18 1.0 PlaneStrain 1
element quad 8 8 9 20 19 1.0 PlaneStrain 1
element quad 9 9 10 21 20 1.0 PlaneStrain 1
element quad 10 10 11 22 21 1.0 PlaneStrain 1
element quad 11 12 13 24 23 1.0 PlaneStrain 1
element quad 12 13 14 25 24 1.0 PlaneStrain 1
element quad 13 14 15 26 25 1.0 PlaneStrain 1
element quad 14 15 16 27 26 1.0 PlaneStrain 1
element quad 15 16 17 28 27 1.0 PlaneStrain 1
element quad 16 17 18 29 28 1.0 PlaneStrain 1
element quad 17 18 19 30 29 1.0 PlaneStrain 1
element quad 18 19 20 31 30 1.0 PlaneStrain 1
element quad 19 20 21 32 31 1.0 PlaneStrain 1
element quad 20 21 22 33 32 1.0 PlaneStrain 1
# ... 180 like lines cut
fix 1 1 1
fix 159 1 1
fix 2 0 1
fix 3 0 1
fix 4 0 1
fix 5 0 1
fix 6 0 1
fix 7 0 1
fix 8 0 1
fix 9 0 1
fix 10 0 1
fix 11 0 1
fix 149 0 1
fix 150 0 1
fix 151 0 1
fix 152 0 1
fix 153 0 1
fix 154 0 1
fix 155 0 1
fix 156 0 1
# ... 22 like lines cut
model basic -ndm 2 -ndf 3
geomTransf Linear 1
node 122 0.0 -10.0
node 270 0.5 -10.0
node 271 -0.5 -10.0
element elasticBeamColumn 227 122 270 785.39815 32500000000.0 49.087384375 1
element elasticBeamColumn 228 122 271 785.39815 32500000000.0 49.087384375 1
node 123 0.0 -9.5
node 272 0.5 -9.5
node 273 -0.5 -9.5
element elasticBeamColumn 229 123 272 785.39815 32500000000.0 49.087384375 1
element elasticBeamColumn 230 123 273 785.39815 32500000000.0 49.087384375 1
node 124 0.0 -9.0
node 274 0.5 -9.0
node 275 -0.5 -9.0
element elasticBeamColumn 231 124 274 785.39815 32500000000.0 49.087384375 1
element elasticBeamColumn 232 124 275 785.39815 32500000000.0 49.087384375 1
node 125 0.0 -8.5
node 276 0.5 -8.5
node 277 -0.5 -8.5
element elasticBeamColumn 233 125 276 785.39815 32500000000.0 49.087384375 1
element elasticBeamColumn 234 125 277 785.39815 32500000000.0 49.087384375 1
node 126 0.0 -8.0
node 278 0.5 -8.0
node 279 -0.5 -8.0
element elasticBeamColumn 235 126 278 785.39815 32500000000.0 49.087384375 1
element elasticBeamColumn 236 126 279 785.39815 32500000000.0 49.087384375 1
node 127 0.0 -7.5
node 280 0.5 -7.5
node 281 -0.5 -7.5
element elasticBeamColumn 237 127 280 785.39815 32500000000.0 49.087384375 1
element elasticBeamColumn 238 127 281 785.39815 32500000000.0 49.087384375 1
node 128 0.0 -7.0
node 282 0.5 -7.0
node 283 -0.5 -7.0
element elasticBeamColumn 239 128 282 785.39815 32500000000.0 49.087384375 1
element elasticBeamColumn 240 128 283 785.39815 32500000000.0 49.087384375 1
node 129 0.0 -6.5
node 284 0.5 -6.5
node 285 -0.5 -6.5
element elasticBeamColumn 241 129 284 785.39815 32500000000.0 49.087384375 1
element elasticBeamColumn 242 129 285 785.39815 32500000000.0 49.087384375 1
node 130 0.0 -6.0
node 286 0.5 -6.0
node 287 -0.5 -6.0
element elasticBeamColumn 243 130 286 785.39815 32500000000.0 49.087384375 1
element elasticBeamColumn 244 130 287 785.39815 32500000000.0 49.087384375 1
node 131 0.0 -5.5
node 288 0.5 -5.5
node 289 -0.5 -5.5
element elasticBeamColumn 245 131 288 785.39815 32500000000.0 49.087384375 1
element elasticBeamColumn 246 131 289 785.39815 32500000000.0 49.087384375 1
node 132 0.0 -5.0
node 290 0.5 -5.0
node 291 -0.5 -5.0
element elasticBeamColumn 247 132 290 785.39815 32500000000.0 49.087384375 1
element elasticBeamColumn 248 132 291 785.39815 32500000000.0 49.087384375 1
node 133 0.0 -4.5
node 292 0.5 -4.5
node 293 -0.5 -4.5
element elasticBeamColumn 249 133 292 785.39815 32500000000.0 49.087384375 1
element elasticBeamColumn 250 133 293 785.39815 32500000000.0 49.087384375 1
node 134 0.0 -4.0
node 294 0.5 -4.0
node 295 -0.5 -4.0
element elasticBeamColumn 251 134 294 785.39815 32500000000.0 49.087384375 1
element elasticBeamColumn 252 134 295 785.39815 32500000000.0 49.087384375 1
node 135 0.0 -3.5
node 296 0.5 -3.5
node 297 -0.5 -3.5
element elasticBeamColumn 253 135 296 785.39815 32500000000.0 49.087384375 1
element elasticBeamColumn 254 135 297 785.39815 32500000000.0 49.087384375 1
node 136 0.0 -3.0
node 298 0.5 -3.0
node 299 -0.5 -3.0
element elasticBeamColumn 255 136 298 785.39815 32500000000.0 49.087384375 1
element elasticBeamColumn 256 136 299 785.39815 32500000000.0 49.087384375 1
node 137 0.0 -2.500000000000001
node 300 0.5 -2.500000000000001
node 301 -0.5 -2.500000000000001
element elasticBeamColumn 257 137 300 785.39815 32500000000.0 49.087384375 1
element elasticBeamColumn 258 137 301 785.39815 32500000000.0 49.087384375 1
node 138 0.0 -2.0
node 302 0.5 -2.0
node 303 -0.5 -2.0
element elasticBeamColumn 259 138 302 785.39815 32500000000.0 49.087384375 1
element elasticBeamColumn 260 138 303 785.39815 32500000000.0 49.087384375 1
node 139 0.0 -1.5
node 304 0.5 -1.5
node 305 -0.5 -1.5
element elasticBeamColumn 261 139 304 785.39815 32500000000.0 49.087384375 1
element elasticBeamColumn 262 139 305 785.39815 32500000000.0 49.087384375 1
node 140 0.0 -1.0
node 306 0.5 -1.0
node 307 -0.5 -1.0
element elasticBeamColumn 263 140 306 785.39815 32500000000.0 49.087384375 1
element elasticBeamColumn 264 140 307 785.39815 32500000000.0 49.087384375 1
node 141 0.0 -0.5
node 308 0.5 -0.5
node 309 -0.5 -0.5
element elasticBeamColumn 265 141 308 785.39815 32500000000.0 49.087384375 1
element elasticBeamColumn 266 141 309 785.39815 32500000000.0 49.087384375 1
node 142 0.0 0.0
node 310 0.5 0.0
node 311 -0.5 0.0
element elasticBeamColumn 267 142 310 785.39815 32500000000.0 49.087384375 1
element elasticBeamColumn 268 142 311 785.39815 32500000000.0 49.087384375 1
node 143 0.0 0.5
node 312 0.5 0.5
node 313 -0.5 0.5
element elasticBeamColumn 269 143 312 785.39815 32500000000.0 49.087384375 1
element elasticBeamColumn 270 143 313 785.39815 32500000000.0 49.087384375 1
node 144 0.0 1.0
node 314 0.5 1.0
node 315 -0.5 1.0
element elasticBeamColumn 271 144 314 785.39815 32500000000.0 49.087384375 1
element elasticBeamColumn 272 144 315 785.39815 32500000000.0 49.087384375 1
node 145 0.0 1.5
node 316 0.5 1.5
node 317 -0.5 1.5
element elasticBeamColumn 273 145 316 785.39815 32500000000.0 49.087384375 1
element elasticBeamColumn 274 145 317 785.39815 32500000000.0 49.087384375 1
node 146 0.0 2.0
node 318 0.5 2.0
node 319 -0.5 2.0
element elasticBeamColumn 275 146 318 785.39815 32500000000.0 49.087384375 1
element elasticBeamColumn 276 146 319 785.39815 32500000000.0 49.087384375 1
node 147 0.0 2.5
node 320 0.5 2.5
node 321 -0.5 2.5
element elasticBeamColumn 277 147 320 785.39815 32500000000.0 49.087384375 1
element elasticBeamColumn 278 147 321 785.39815 32500000000.0 49.087384375 1
node 148 0.0 3.0
node 322 0.5 3.0
node 323 -0.5 3.0
element elasticBeamColumn 279 148 322 785.39815 32500000000.0 49.087384375 1
element elasticBeamColumn 280 148 323 785.39815 32500000000.0 49.087384375 1
element elasticBeamColumn 101 122 123 0.78539815 32500000.0 0.049087384375 1
element elasticBeamColumn 102 123 124 0.78539815 32500000.0 0.049087384375 1
element elasticBeamColumn 103 124 125 0.78539815 32500000.0 0.049087384375 1
element elasticBeamColumn 104 125 126 0.78539815 32500000.0 0.049087384375 1
element elasticBeamColumn 105 126 127 0.78539815 32500000.0 0.049087384375 1
element elasticBeamColumn 106 127 128 0.78539815 32500000.0 0.049087384375 1
element elasticBeamColumn 107 128 129 0.78539815 32500000.0 0.049087384375 1
element elasticBeamColumn 108 129 130 0.78539815 32500000.0 0.049087384375 1
element elasticBeamColumn 109 130 131 0.78539815 32500000.0 0.049087384375 1
element elasticBeamColumn 110 131 132 0.78539815 32500000.0 0.049087384375 1
element elasticBeamColumn 111 132 133 0.78539815 32500000.0 0.049087384375 1
element elasticBeamColumn 112 133 134 0.78539815 32500000.0 0.049087384375 1
element elasticBeamColumn 113 134 135 0.78539815 32500000.0 0.049087384375 1
element elasticBeamColumn 114 135 136 0.78539815 32500000.0 0.049087384375 1
element elasticBeamColumn 115 136 137 0.78539815 32500000.0 0.049087384375 1
element elasticBeamColumn 116 137 138 0.78539815 32500000.0 0.049087384375 1
element elasticBeamColumn 117 138 139 0.78539815 32500000.0 0.049087384375 1
element elasticBeamColumn 118 139 140 0.78539815 32500000.0 0.049087384375 1
# ... 8 like lines cut
fix 122 0 1 0
element zeroLengthInterface2D 281 -sNdNum 11 -mNdNum 21 -dof 2 3 -Nodes 11 22 33 44 55 66 77 88 99 110 121 311 309 307 305 303 301 299 297 295 293 291 289 287 285 283 281 279 277 275 273 271 100000000.0 100000000.0 0.0
element zeroLengthInterface2D 282 -sNdNum 11 -mNdNum 21 -dof 2 3 -Nodes 259 248 237 226 215 204 193 182 171 160 149 270 272 274 276 278 280 282 284 286 288 290 292 294 296 298 300 302 304 306 308 310 100000000.0 100000000.0 0.0
printGID example3.msh
timeSeries Linear 1
pattern Plain 1 1
load 148 -1000.0 0.0 0.0
getNodeTags
recorder Node -file disp.txt -node 1 2 3 4 5 6 7 8 9 10 11 12 13 14 15 16 17 18 19 20 21 22 23 24 25 26 27 28 29 30 31 32 33 34 35 36 37 38 39 40 41 42 43 44 45 46 47 48 49 50 51 52 53 54 55 56 57 58 59 60 61 62 63 64 65 66 67 68 69 70 71 72 73 74 75 76 77 78 79 80 81 82 83 84 85 86 87 88 89 90 91 92 93 94 95 96 97 98 99 100 101 102 103 104 105 106 107 108 109 110 111 112 113 114 115 116 117 118 1
integrator LoadControl 0.01
test EnergyIncr 1000000.0 100 5
algorithm Newton
numberer RCM
constraints Plain
system ProfileSPD
analysis Static
analyze 100
printModel node 148
wipe
